%chk=styrene.chk
# opt freq hf/3-21g geom=connectivity

styrene opt freq

0 1
 C                  0.01812630   -1.78614110    1.19734260
 C                  1.41328630   -1.78614110    1.19734260
 C                  2.11082430   -0.57839010    1.19734260
 C                  1.41317030    0.63011890    1.19614360
 C                  0.01834530    0.63004090    1.19566460
 C                 -0.67925570   -0.57816510    1.19666060
 H                 -0.53163270   -2.73845810    1.19779260
 H                  1.96279430   -2.73865410    1.19865760
 H                  3.21050430   -0.57831010    1.19797660
 H                  1.96337030    1.58226190    1.19608460
 H                 -1.77885970   -0.57798210    1.19648060
 C                 -0.75199288    1.96352405    1.19433011
 C                 -1.42989048    3.13698922    1.19315576
 H                 -1.96512539    4.06350028    1.19222855
 H                 -0.05174573    2.36874971    1.89457727
 H                 -1.45224004    1.55829838    0.49408296

 1 2 1.5 6 1.5 7 1.0
 2 3 1.5 8 1.0
 3 4 1.5 9 1.0
 4 5 1.5 10 1.0
 5 6 1.5 12 1.0
 6 11 1.0
 7
 8
 9
 10
 11
 12 13 2.0 15 1.0 16 1.0
 13 14 1.0
 14
 15
 16

