%chk=formaldehyde.chk
# freq hf/3-21g geom=connectivity

Title Card Required

0 1
 C                  0.31439390    0.37289757    0.20606394
 H                  0.69147586   -0.60702429    0.00000000
 H                 -0.73517857    0.40179889    0.00000000
 O                  0.98863059    1.32638710    0.61926182

 1 2 1.0 3 1.0 4 2.0
 2
 3
 4

